
#######################################################################
#
#                 Cambridge Crystallographic Data Centre
#                                CCDC 
#
#######################################################################
#
# If this CIF has been generated from an entry in the Cambridge 
# Structural Database, then it will include bibliographic, chemical, 
# crystal, experimental, refinement or atomic coordinate data resulting 
# from the CCDC's data processing and validation procedures.
#
#######################################################################

data_ALIDIL
_symmetry_cell_setting           monoclinic
_symmetry_space_group_name_H-M   'P 21/c'
_symmetry_Int_Tables_number      14
_space_group_name_Hall           '-P 2ybc'
loop_
_symmetry_equiv_pos_site_id
_symmetry_equiv_pos_as_xyz
1 x,y,z
2 -x,1/2+y,1/2-z
3 -x,-y,-z
4 x,1/2-y,1/2+z
_cell_length_a                   17.017(2)
_cell_length_b                   9.6608(13)
_cell_length_c                   8.9348(12)
_cell_angle_alpha                90
_cell_angle_beta                 102.7740(10)
_cell_angle_gamma                90
_cell_volume                     1432.51
loop_
_atom_site_label
_atom_site_type_symbol
_atom_site_fract_x
_atom_site_fract_y
_atom_site_fract_z
C1 C 0.3959(4) 0.3697(14) 0.6716(8)
C2 C 0.4486(4) 0.4357(13) 0.5802(8)
C3 C 0.4232(4) 0.4499(13) 0.4171(8)
C4 C 0.5230(4) 0.4845(13) 0.6572(8)
H1 H 0.5379 0.4731 0.7631
C5 C 0.1491(4) 0.1541(9) 0.5678(7)
C6 C 0.0714(4) 0.0762(9) 0.5356(7)
C7 C 0.0307(4) 0.0435(9) 0.6530(7)
C8 C 0.0394(4) 0.0335(9) 0.3859(7)
H2 H 0.0660 0.0575 0.3094
C9 C 0.2210(8) -0.0474(18) 0.0960(11)
H3 H 0.2636 -0.0241 0.0512
C10 C 0.1916(12) -0.1992(17) -0.1178(15)
H4 H 0.1508 -0.1695 -0.2040
H5 H 0.1896 -0.2981 -0.1086
H6 H 0.2436 -0.1723 -0.1328
C11 C 0.0972(10) -0.164(2) 0.062(2)
H7 H 0.0962 -0.1219 0.1591
H8 H 0.0896 -0.2617 0.0680
H9 H 0.0548 -0.1251 -0.0160
N1 N 0.1776(10) -0.1349(15) 0.0224(14)
O1 O 0.3339(3) 0.3005(7) 0.6073(5)
O2 O 0.4090(3) 0.3900(10) 0.8152(6)
O3 O 0.3509(3) 0.4080(9) 0.3371(6)
O4 O 0.1865(3) 0.1630(6) 0.7073(5)
O5 O 0.1738(3) 0.2063(7) 0.4580(5)
O6 O 0.0550(3) 0.0845(7) 0.8000(5)
H10 H 0.0960 0.1313 0.8095
O7 O 0.2229(3) 0.0210(7) 0.2196(6)
O8 O 0.3146(3) 0.0251(9) 0.5376(6)
H11 H 0.316(6) 0.029(11) 0.626(8)
H12 H 0.333(7) -0.049(8) 0.530(13)
Y1 Y 0.28713(4) 0.20943(11) 0.35961(7)
C1B C 0.6041(4) 0.6303(14) 0.3284(8)
C2B C 0.5514(4) 0.5643(13) 0.4198(8)
C3B C 0.5768(4) 0.5501(13) 0.5829(8)
C4B C 0.4770(4) 0.5155(13) 0.3428(8)
H1B H 0.4621 0.5269 0.2369
O1B O 0.6661(3) 0.6995(7) 0.3927(5)
O2B O 0.5910(3) 0.6100(10) 0.1848(6)
O3B O 0.6491(3) 0.5920(9) 0.6629(6)
C5B C -0.1491(4) -0.1541(9) 0.4322(7)
C6B C -0.0714(4) -0.0762(9) 0.4644(7)
C7B C -0.0307(4) -0.0435(9) 0.3470(7)
C8B C -0.0394(4) -0.0335(9) 0.6141(7)
H2B H -0.0660 -0.0575 0.6906
O4B O -0.1865(3) -0.1630(6) 0.2927(5)
O5B O -0.1738(3) -0.2063(7) 0.5420(5)
O6B O -0.0550(3) -0.0845(7) 0.2000(5)
H10B H -0.0960 -0.1313 0.1905
C9B C -0.2210(8) 0.0474(18) 0.9040(11)
H3B H -0.2636 0.0241 0.9488
C10B C -0.1916(12) 0.1992(17) 1.1178(15)
H4B H -0.1508 0.1695 1.2040
H5B H -0.1896 0.2981 1.1086
H6B H -0.2436 0.1723 1.1328
C11B C -0.0972(10) 0.164(2) 0.938(2)
H7B H -0.0962 0.1219 0.8409
H8B H -0.0896 0.2617 0.9320
H9B H -0.0548 0.1251 1.0160
N1B N -0.1776(10) 0.1349(15) 0.9776(14)
O7B O -0.2229(3) -0.0210(7) 0.7804(6)
O8B O -0.3146(3) -0.0251(9) 0.4624(6)
H11B H -0.316(6) -0.029(11) 0.374(8)
H12B H -0.333(7) 0.049(8) 0.470(13)
Y1B Y -0.28713(4) -0.20943(11) 0.64039(7)
O1A O -0.3339(3) -0.1995(7) 0.8927(5)
O1B_2 O -0.3339(3) -0.3005(7) 0.3927(5)
O1C O 0.3339(3) 0.1995(7) 0.1073(5)
O2A O -0.4090(3) -0.1100(10) 0.6848(6)
O2C O 0.4090(3) 0.1100(10) 0.3152(6)
O3B_2 O -0.3509(3) -0.4080(9) 0.6629(6)
O4A O -0.1865(3) -0.3370(6) 0.7927(5)
O4C O 0.1865(3) 0.3370(6) 0.2073(5)
Y1A Y -0.28713(4) -0.29057(11) 0.14039(7)
Y1A_2 Y 0.71287(4) 0.70943(11) 0.14039(7)
Y1B_2 Y 0.71287(4) 0.79057(11) 0.64039(7)
Y1C Y 0.28713(4) 0.29057(11) 0.85961(7)
O9 O 0.3578(17) 0.753(3) 0.1226(19)
O10 O 0.4312(8) 0.8370(14) 0.4308(13)
loop_
_geom_bond_atom_site_label_1
_geom_bond_atom_site_label_2
_geom_bond_site_symmetry_1
_geom_bond_site_symmetry_2
C1 C2 1_555 1_555
C2 C3 1_555 1_555
C3 O3 1_555 1_555
C4 C2 1_555 1_555
H1 C4 1_555 1_555
C5 C6 1_555 1_555
C6 C7 1_555 1_555
C7 O6 1_555 1_555
C8 C6 1_555 1_555
H2 C8 1_555 1_555
C9 H3 1_555 1_555
C10 H4 1_555 1_555
H5 C10 1_555 1_555
H6 C10 1_555 1_555
C11 H7 1_555 1_555
H8 C11 1_555 1_555
H9 C11 1_555 1_555
N1 C9 1_555 1_555
O1 C1 1_555 1_555
O2 C1 1_555 1_555
O3 Y1 1_555 1_555
O4 C5 1_555 1_555
O5 C5 1_555 1_555
O6 H10 1_555 1_555
O7 C9 1_555 1_555
O8 H11 1_555 1_555
H12 O8 1_555 1_555
Y1 O1 1_555 1_555
C1B C2B 1_555 1_555
C2B C3B 1_555 1_555
C3B C4 1_555 1_555
C4B C3 1_555 1_555
H1B C4B 1_555 1_555
O1B C1B 1_555 1_555
O2B C1B 1_555 1_555
O3B C3B 1_555 1_555
C5B C6B 1_555 1_555
C6B C7B 1_555 1_555
C7B C8 1_555 1_555
C8B C7 1_555 1_555
H2B C8B 1_555 1_555
O4B C5B 1_555 1_555
O5B C5B 1_555 1_555
O6B C7B 1_555 1_555
H10B O6B 1_555 1_555
C9B H3B 1_555 1_555
C10B H4B 1_555 1_555
H5B C10B 1_555 1_555
H6B C10B 1_555 1_555
C11B H7B 1_555 1_555
H8B C11B 1_555 1_555
H9B C11B 1_555 1_555
N1B C9B 1_555 1_555
O7B C9B 1_555 1_555
O8B H11B 1_555 1_555
H12B O8B 1_555 1_555
Y1B O5B 1_555 1_555
O1A Y1B 1_555 1_555
O1B_2 Y1B 1_555 1_555
O1C Y1 1_555 1_555
O2A Y1B 1_555 1_555
O2C Y1 1_555 1_555
O3B_2 Y1B 1_555 1_555
O4A Y1B 1_555 1_555
O4C Y1 1_555 1_555
Y1A O4B 1_555 1_555
Y1A_2 O1B 1_555 1_555
Y1B_2 O1B 1_555 1_555
Y1C O1 1_555 1_555
C10 N1 1_555 1_555
C11 N1 1_555 1_555
O2 Y1C 1_555 1_555
O4 Y1C 1_555 1_555
O5 Y1 1_555 1_555
O7 Y1 1_555 1_555
O8 Y1 1_555 1_555
C2B C4B 1_555 1_555
O2B Y1A_2 1_555 1_555
O3B Y1B_2 1_555 1_555
C6B C8B 1_555 1_555
C10B N1B 1_555 1_555
C11B N1B 1_555 1_555
O7B Y1B 1_555 1_555
O8B Y1B 1_555 1_555
O1B_2 Y1A 1_555 1_555

#END
